 &time_control
 run_days                            = 0,
 run_hours                           = 1,
 run_minutes                         = 0,
 run_seconds                         = 0,
 start_year                          = 2013, 2000, 2000,
 start_month                         = 04,   01,   01,
 start_day                           = 10,   24,   24,
 start_hour                          = 18,   12,   12,
 start_minute                        = 00,   00,   00,
 start_second                        = 00,   00,   00,
 end_year                            = 2013, 2000, 2000,
 end_month                           = 04,   01,   01,
 end_day                             = 10,   25,   25,
 end_hour                            = 19,   12,   12,
 end_minute                          = 00,   00,   00,
 end_second                          = 00,   00,   00,
 interval_seconds                    = 3600
 input_from_file                     = .true.,.true.,.true.,
 history_interval                    = 30,  60,   60,
 frames_per_outfile                  = 1, 1000, 1000,
 restart                             = .false.,
 restart_interval                    = 5000,
 io_form_history                     = 2
 io_form_restart                     = 2
 io_form_input                       = 2
 io_form_boundary                    = 2
 debug_level                         = 0
 AUXINPUT6_INNAME                    = "auxinput"         
 AUXINPUT6_INTERVAL_S= 300            ,
 AUXINPUT6_BEGIN= 0               ,
 AUXINPUT6_END= 60               ,
 IO_FORM_AUXINPUT6=          2,
 /

&domains
time_step=100,
time_step_fract_num=0,
time_step_fract_den=1,
max_dom=1,
e_we=301,
e_sn=181,
e_vert=41,
p_top_requested=5000,
num_metgrid_levels=27,
num_metgrid_soil_levels=4,
dx=20000,
dy=20000,
grid_id=1,
parent_id=1,
i_parent_start=1,
j_parent_start=1,
parent_grid_ratio=1,
parent_time_step_ratio=1,
feedback=1,
smooth_option=0,
/

&physics
mp_physics=3,
ra_lw_physics=1,
ra_sw_physics=1,
radt=30,
sf_sfclay_physics=1,
sf_surface_physics=2,
bl_pbl_physics=1,
bldt=0,
cu_physics=1,
cudt=5,
isfflx=1,
ifsnow=0,
icloud=1,
surface_input_source=1,
num_soil_layers=4,
sf_urban_physics=0,
maxiens=1,
maxens=3,
maxens2=3,
maxens3=16,
ensdim=144,
/

&fdda
/

&dynamics
w_damping=0,
diff_opt=1,
km_opt=4,
diff_6th_opt=0,
diff_6th_factor=0.12,
base_temp=290.,
damp_opt=0,
zdamp=5000.,
dampcoef=0.2,
khdif=0,
kvdif=0,
non_hydrostatic=.true.,
moist_adv_opt=1,
scalar_adv_opt=1,
/

&bdy_control
spec_bdy_width=5,
spec_zone=1,
relax_zone=4,
specified=.true.,
nested=.false.,
/

&grib2
/

&namelist_quilt
nio_tasks_per_group=0,
nio_groups=1,
/

&latent_heat_nudging
lhn_type=1
lhn_start=600
lhn_end=1200
/


